/*--------------------------------*- C++ -*----------------------------------*\
| =========                 |                                                 |
| \\      /  F ield         | OpenFOAM: The Open Source CFD Toolbox           |
|  \\    /   O peration     | Version:  v2312                                 |
|   \\  /    A nd           | Website:  www.openfoam.com                      |
|    \\/     M anipulation  |                                                 |
\*---------------------------------------------------------------------------*/
FoamFile
{
	version     2.0;
	format      ascii;
	class       dictionary;
	object      blockMeshDict;
}
// * * * * * * * * * * * * * * * * * * * * * * * * * * * * * * * * * * * * * //

scale	1;

vertices
(
	(-11.500000000000014 -5.300000000000004 -20.450000000000017)
	(247.5 -5.300000000000004 -20.450000000000017)
	(247.5 113.69999999999999 -20.450000000000017)
	(-11.500000000000014 113.69999999999999 -20.450000000000017)
	(-11.500000000000014 -5.300000000000004 434.54999999999995)
	(247.5 -5.300000000000004 434.54999999999995)
	(247.5 113.69999999999999 434.54999999999995)
	(-11.500000000000014 113.69999999999999 434.54999999999995)
);

blocks
(
	hex (0 1 2 3 4 5 6 7) (37 17 65) simpleGrading (1 1 1)
);

// * * * * * * * * * * * * * * * * * * * * * * * * * * * * * * * * * * * * * //