/*--------------------------------*- C++ -*----------------------------------*\
| =========                 |                                                 |
| \\      /  F ield         | OpenFOAM: The Open Source CFD Toolbox           |
|  \\    /   O peration     | Version:  2512                                  |
|   \\  /    A nd           | Website:  www.openfoam.com                      |
|    \\/     M anipulation  |                                                 |
\*---------------------------------------------------------------------------*/
// * * * * * * * * * * * * * * * * * * * * * * * * * * * * * * * * * * * * * //
FoamFile
{
    version         2;
    format          ascii;
    class           dictionary;
    object          blockMeshDict;
}
// * * * * * * * * * * * * * * * * * * * * * * * * * * * * * * * * * * * * * //

vertices
(
    (-11.500000000000014 -5.300000000000004 -20.450000000000017)
    (244.5 -5.300000000000004 -20.450000000000017)
    (244.5 114.69999999999999 -20.450000000000017)
    (-11.500000000000014 114.69999999999999 -20.450000000000017)
    (-11.500000000000014 -5.300000000000004 435.54999999999995)
    (244.5 -5.300000000000004 435.54999999999995)
    (244.5 114.69999999999999 435.54999999999995)
    (-11.500000000000014 114.69999999999999 435.54999999999995)
);

blocks
(
    hex (0 1 2 3 4 5 6 7) (32 15 57) simpleGrading (1 1 1)
);

// * * * * * * * * * * * * * * * * * * * * * * * * * * * * * * * * * * * * * //