/*--------------------------------*- C++ -*----------------------------------*\
| =========                 |                                                 |
| \\      /  F ield         | OpenFOAM: The Open Source CFD Toolbox           |
|  \\    /   O peration     | Version:  2512                                  |
|   \\  /    A nd           | Website:  www.openfoam.com                      |
|    \\/     M anipulation  |                                                 |
\*---------------------------------------------------------------------------*/
// * * * * * * * * * * * * * * * * * * * * * * * * * * * * * * * * * * * * * //
FoamFile
{
    version         2;
    format          ascii;
    class           dictionary;
    object          snappyHexMeshDict;
}
// * * * * * * * * * * * * * * * * * * * * * * * * * * * * * * * * * * * * * //

castellatedMesh true;

snap            true;

addLayers       false;

geometry
{
    AUTO_SURF_BND_fan-block-new.stl
    {
        type            triSurfaceMesh;
        name            fan-block-new;
    }
    AUTO_SURF_FZ_CZ_VOL_IN_PCB-board-bottom.stl
    {
        type            triSurfaceMesh;
        name            PCB-board-bottom;
    }
    AUTO_SURF_FZ_CZ_VOL_IN_PCB-board-top.stl
    {
        type            triSurfaceMesh;
        name            PCB-board-top;
    }
    AUTO_SURF_FZ_CZ_VOL_IN_emi-shield.stl
    {
        type            triSurfaceMesh;
        name            emi-shield;
    }
    AUTO_SURF_FZ_CZ_VOL_IN_extra-emi-shield.stl
    {
        type            triSurfaceMesh;
        name            extra-emi-shield;
    }
    AUTO_SURF_FZ_CZ_VOL_IN_heat-sink-to-220-1.stl
    {
        type            triSurfaceMesh;
        name            heat-sink-to-220-1;
    }
    AUTO_SURF_FZ_CZ_VOL_IN_heat-sink-to-220-2.stl
    {
        type            triSurfaceMesh;
        name            heat-sink-to-220-2;
    }
    AUTO_SURF_FZ_CZ_VOL_IN_heat-sink-to-220-3.stl
    {
        type            triSurfaceMesh;
        name            heat-sink-to-220-3;
    }
    AUTO_SURF_FZ_CZ_VOL_IN_heat-sink-to-220-4.stl
    {
        type            triSurfaceMesh;
        name            heat-sink-to-220-4;
    }
    AUTO_SURF_FZ_CZ_VOL_IN_heat-sink-to-252-1.stl
    {
        type            triSurfaceMesh;
        name            heat-sink-to-252-1;
    }
    AUTO_SURF_FZ_CZ_VOL_IN_heat-sink-to-252-2.stl
    {
        type            triSurfaceMesh;
        name            heat-sink-to-252-2;
    }
    AUTO_SURF_FZ_CZ_VOL_IN_heat-sink-to-252-3.stl
    {
        type            triSurfaceMesh;
        name            heat-sink-to-252-3;
    }
    AUTO_SURF_FZ_CZ_VOL_IN_heat-sink-to-252-4.stl
    {
        type            triSurfaceMesh;
        name            heat-sink-to-252-4;
    }
    AUTO_SURF_FZ_CZ_VOL_IN_inductor-comp-1.stl
    {
        type            triSurfaceMesh;
        name            inductor-comp-1;
    }
    AUTO_SURF_FZ_CZ_VOL_IN_inductor-comp-2.stl
    {
        type            triSurfaceMesh;
        name            inductor-comp-2;
    }
    AUTO_SURF_FZ_CZ_VOL_IN_inductor-comp-3.stl
    {
        type            triSurfaceMesh;
        name            inductor-comp-3;
    }
    AUTO_SURF_FZ_CZ_VOL_IN_inductor-comp-4.stl
    {
        type            triSurfaceMesh;
        name            inductor-comp-4;
    }
    AUTO_SURF_FZ_CZ_VOL_IN_inductor.stl
    {
        type            triSurfaceMesh;
        name            inductor;
    }
    AUTO_SURF_FZ_CZ_VOL_IN_mosfet-1.stl
    {
        type            triSurfaceMesh;
        name            mosfet-1;
    }
    AUTO_SURF_FZ_CZ_VOL_IN_mosfet-2.stl
    {
        type            triSurfaceMesh;
        name            mosfet-2;
    }
    AUTO_SURF_FZ_CZ_VOL_IN_mosfet-3.stl
    {
        type            triSurfaceMesh;
        name            mosfet-3;
    }
    AUTO_SURF_FZ_CZ_VOL_IN_mosfet-4.stl
    {
        type            triSurfaceMesh;
        name            mosfet-4;
    }
    AUTO_SURF_FZ_CZ_VOL_IN_schottky-1.stl
    {
        type            triSurfaceMesh;
        name            schottky-1;
    }
    AUTO_SURF_FZ_CZ_VOL_IN_schottky-2.stl
    {
        type            triSurfaceMesh;
        name            schottky-2;
    }
    AUTO_SURF_FZ_CZ_VOL_IN_schottky-3.stl
    {
        type            triSurfaceMesh;
        name            schottky-3;
    }
    AUTO_SURF_FZ_CZ_VOL_IN_schottky-4.stl
    {
        type            triSurfaceMesh;
        name            schottky-4;
    }
    AUTO_SURF_FZ_CZ_VOL_IN_thermal-pad-1.stl
    {
        type            triSurfaceMesh;
        name            thermal-pad-1;
    }
    AUTO_SURF_FZ_CZ_VOL_IN_thermal-pad-2.stl
    {
        type            triSurfaceMesh;
        name            thermal-pad-2;
    }
    AUTO_SURF_FZ_CZ_VOL_IN_transformer.stl
    {
        type            triSurfaceMesh;
        name            transformer;
    }
    AUTO_SURF_FZ_fan-baffle.stl
    {
        type            triSurfaceMesh;
        name            fan-baffle;
    }
    outer-domain.stl
    {
        type            triSurfaceMesh;
        name            outer-domain;
    }
}

castellatedMeshControls
{
    maxLocalCells           100000000;
    maxGlobalCells          300000000;
    minRefinementCells      10;
    maxLoadUnbalance        0.1;
    features                ( );
    refinementRegions
    {
        outer-domain
        {
            mode            inside;
            levels          ( ( 1 0 ) );
        }
        PCB-board-bottom
        {
            mode            inside;
            levels          ( ( 1 4 ) );
        }
        PCB-board-top
        {
            mode            inside;
            levels          ( ( 1 4 ) );
        }
        emi-shield
        {
            mode            inside;
            levels          ( ( 1 6 ) );
        }
        extra-emi-shield
        {
            mode            inside;
            levels          ( ( 1 4 ) );
        }
        heat-sink-to-220-1
        {
            mode            inside;
            levels          ( ( 1 5 ) );
        }
        heat-sink-to-220-2
        {
            mode            inside;
            levels          ( ( 1 5 ) );
        }
        heat-sink-to-220-3
        {
            mode            inside;
            levels          ( ( 1 5 ) );
        }
        heat-sink-to-220-4
        {
            mode            inside;
            levels          ( ( 1 5 ) );
        }
        heat-sink-to-252-1
        {
            mode            inside;
            levels          ( ( 1 6 ) );
        }
        heat-sink-to-252-2
        {
            mode            inside;
            levels          ( ( 1 6 ) );
        }
        heat-sink-to-252-3
        {
            mode            inside;
            levels          ( ( 1 6 ) );
        }
        heat-sink-to-252-4
        {
            mode            inside;
            levels          ( ( 1 6 ) );
        }
        inductor-comp-1
        {
            mode            inside;
            levels          ( ( 1 3 ) );
        }
        inductor-comp-2
        {
            mode            inside;
            levels          ( ( 1 2 ) );
        }
        inductor-comp-3
        {
            mode            inside;
            levels          ( ( 1 3 ) );
        }
        inductor-comp-4
        {
            mode            inside;
            levels          ( ( 1 2 ) );
        }
        inductor
        {
            mode            inside;
            levels          ( ( 1 2 ) );
        }
        mosfet-1
        {
            mode            inside;
            levels          ( ( 1 4 ) );
        }
        mosfet-2
        {
            mode            inside;
            levels          ( ( 1 4 ) );
        }
        mosfet-3
        {
            mode            inside;
            levels          ( ( 1 4 ) );
        }
        mosfet-4
        {
            mode            inside;
            levels          ( ( 1 4 ) );
        }
        schottky-1
        {
            mode            inside;
            levels          ( ( 1 3 ) );
        }
        schottky-2
        {
            mode            inside;
            levels          ( ( 1 3 ) );
        }
        schottky-3
        {
            mode            inside;
            levels          ( ( 1 3 ) );
        }
        schottky-4
        {
            mode            inside;
            levels          ( ( 1 3 ) );
        }
        thermal-pad-1
        {
            mode            inside;
            levels          ( ( 1 2 ) );
        }
        thermal-pad-2
        {
            mode            inside;
            levels          ( ( 1 2 ) );
        }
        transformer
        {
            mode            inside;
            levels          ( ( 1 2 ) );
        }
    }
    refinementSurfaces
    {
        outer-domain
        {
            level           (0 0);
            regions
            {
                Inflow
                {
                    level   (0 1);
                }
                Outflow
                {
                    level   (0 1);
                }
                all_walls
                {
                    level   (0 1);
                }
            }
        }
        fan-block-new
        {
            level           (2 2);
        }
        PCB-board-bottom
        {
            level           (4 4);
            faceZone        PCB-board-bottom;
            faceType        internal;
            cellZoneInside  inside;
            cellZone        PCB-board-bottom;
        }
        PCB-board-top
        {
            level           (4 4);
            faceZone        PCB-board-top;
            faceType        internal;
            cellZoneInside  inside;
            cellZone        PCB-board-top;
        }
        emi-shield
        {
            level           (6 6);
            faceZone        emi-shield;
            faceType        internal;
            cellZoneInside  inside;
            cellZone        emi-shield;
        }
        extra-emi-shield
        {
            level           (4 4);
            faceZone        extra-emi-shield;
            faceType        internal;
            cellZoneInside  inside;
            cellZone        extra-emi-shield;
        }
        heat-sink-to-220-1
        {
            level           (5 5);
            faceZone        heat-sink-to-220-1;
            faceType        internal;
            cellZoneInside  inside;
            cellZone        heat-sink-to-220-1;
        }
        heat-sink-to-220-2
        {
            level           (5 5);
            faceZone        heat-sink-to-220-2;
            faceType        internal;
            cellZoneInside  inside;
            cellZone        heat-sink-to-220-2;
        }
        heat-sink-to-220-3
        {
            level           (5 5);
            faceZone        heat-sink-to-220-3;
            faceType        internal;
            cellZoneInside  inside;
            cellZone        heat-sink-to-220-3;
        }
        heat-sink-to-220-4
        {
            level           (5 5);
            faceZone        heat-sink-to-220-4;
            faceType        internal;
            cellZoneInside  inside;
            cellZone        heat-sink-to-220-4;
        }
        heat-sink-to-252-1
        {
            level           (6 6);
            faceZone        heat-sink-to-252-1;
            faceType        internal;
            cellZoneInside  inside;
            cellZone        heat-sink-to-252-1;
        }
        heat-sink-to-252-2
        {
            level           (6 6);
            faceZone        heat-sink-to-252-2;
            faceType        internal;
            cellZoneInside  inside;
            cellZone        heat-sink-to-252-2;
        }
        heat-sink-to-252-3
        {
            level           (6 6);
            faceZone        heat-sink-to-252-3;
            faceType        internal;
            cellZoneInside  inside;
            cellZone        heat-sink-to-252-3;
        }
        heat-sink-to-252-4
        {
            level           (6 6);
            faceZone        heat-sink-to-252-4;
            faceType        internal;
            cellZoneInside  inside;
            cellZone        heat-sink-to-252-4;
        }
        inductor-comp-1
        {
            level           (3 3);
            faceZone        inductor-comp-1;
            faceType        internal;
            cellZoneInside  inside;
            cellZone        inductor-comp-1;
        }
        inductor-comp-2
        {
            level           (2 2);
            faceZone        inductor-comp-2;
            faceType        internal;
            cellZoneInside  inside;
            cellZone        inductor-comp-2;
        }
        inductor-comp-3
        {
            level           (3 3);
            faceZone        inductor-comp-3;
            faceType        internal;
            cellZoneInside  inside;
            cellZone        inductor-comp-3;
        }
        inductor-comp-4
        {
            level           (3 3);
            faceZone        inductor-comp-4;
            faceType        internal;
            cellZoneInside  inside;
            cellZone        inductor-comp-4;
        }
        inductor
        {
            level           (2 2);
            faceZone        inductor;
            faceType        internal;
            cellZoneInside  inside;
            cellZone        inductor;
        }
        mosfet-1
        {
            level           (4 4);
            faceZone        mosfet-1;
            faceType        internal;
            cellZoneInside  inside;
            cellZone        mosfet-1;
        }
        mosfet-2
        {
            level           (4 4);
            faceZone        mosfet-2;
            faceType        internal;
            cellZoneInside  inside;
            cellZone        mosfet-2;
        }
        mosfet-3
        {
            level           (4 4);
            faceZone        mosfet-3;
            faceType        internal;
            cellZoneInside  inside;
            cellZone        mosfet-3;
        }
        mosfet-4
        {
            level           (4 4);
            faceZone        mosfet-4;
            faceType        internal;
            cellZoneInside  inside;
            cellZone        mosfet-4;
        }
        schottky-1
        {
            level           (3 3);
            faceZone        schottky-1;
            faceType        internal;
            cellZoneInside  inside;
            cellZone        schottky-1;
        }
        schottky-2
        {
            level           (3 3);
            faceZone        schottky-2;
            faceType        internal;
            cellZoneInside  inside;
            cellZone        schottky-2;
        }
        schottky-3
        {
            level           (3 3);
            faceZone        schottky-3;
            faceType        internal;
            cellZoneInside  inside;
            cellZone        schottky-3;
        }
        schottky-4
        {
            level           (3 3);
            faceZone        schottky-4;
            faceType        internal;
            cellZoneInside  inside;
            cellZone        schottky-4;
        }
        thermal-pad-1
        {
            level           (2 2);
            faceZone        thermal-pad-1;
            faceType        internal;
            cellZoneInside  inside;
            cellZone        thermal-pad-1;
        }
        thermal-pad-2
        {
            level           (2 2);
            faceZone        thermal-pad-2;
            faceType        internal;
            cellZoneInside  inside;
            cellZone        thermal-pad-2;
        }
        transformer
        {
            level           (2 2);
            faceZone        transformer;
            faceType        internal;
            cellZoneInside  inside;
            cellZone        transformer;
        }
        fan-baffle
        {
            level           (1 3);
            faceZone        fan-baffle;
            faceType        internal;
        }
    }
    resolveFeatureAngle     30;
    nCellsBetweenLevels     2;
    locationInMesh          ( 120 70 320 );
    allowFreeStandingZoneFaces true;
}

snapControls
{
    nSmoothPatch            3;
    nSmoothInternal         5;
    tolerance               2;
    nSolveIter              30;
    nRelaxIter              5;
    nFeatureSnapIter        10;
    implicitFeatureSnap     true;
    explicitFeatureSnap     false;
    multiRegionFeatureSnap  false;
}

addLayersControls
{
    layers
    {
    }

    relativeSizes              true;
    expansionRatio             1.2;
    finalLayerThickness        0.1;
    featureAngle               180;
    slipFeatureAngle           30;
    nGrow                      0;
    nBufferCellsNoExtrude      0;
    minMedialAxisAngle         90;
    maxFaceThicknessRatio      0.3;
    maxThicknessToMedialRatio  0.3;
    minThickness               0.0001;
    nLayerIter                 50;
    nRelaxIter                 5;
    nSmoothSurfaceNormals      5;
    nSmoothNormals             30;
    nSmoothThickness           10;
    nRelaxedIter               50;
    nMedialAxisIter            10;
}

meshQualityControls
{
    maxNonOrtho             65;
    maxBoundarySkewness     20;
    maxInternalSkewness     4;
    maxConcave              80;
    minFlatness             0.5;
    minVol                  1e-40;
    minTetQuality           -1e-30;
    minArea                 -1;
    minTwist                0.02;
    minDeterminant          0.001;
    minFaceWeight           0.05;
    minVolRatio             0.01;
    minTriangleTwist        -1;
    minEdgeLength           -1;
    relaxed
    {
        maxNonOrtho         70;
    }
    nSmoothScale            4;
    errorReduction          0.75;
}

mergeTolerance  1e-06;


// ************************************************************************* //
