FoamFile
{
    format      ascii;
    class       dictionary;
    object      fvSolution;
}

solvers
{
   cellDisplacement
   {
       solver          GAMG;
       smoother        GaussSeidel;
       minIter         1;
       tolerance       1e-7;
       relTol          0.01;
   }
}

